# generated using pymatgen
data_Li2VNiO4
_symmetry_space_group_name_H-M   'P 1'
_cell_length_a   5.87792791
_cell_length_b   5.90415605
_cell_length_c   5.90682499
_cell_angle_alpha   89.95012308
_cell_angle_beta   60.27677276
_cell_angle_gamma   60.27899738
_symmetry_Int_Tables_number   1
_chemical_formula_structural   Li2VNiO4
_chemical_formula_sum   'Li4 V2 Ni2 O8'
_cell_volume   146.22157302
_cell_formula_units_Z   2
loop_
 _symmetry_equiv_pos_site_id
 _symmetry_equiv_pos_as_xyz
  1  'x, y, z'
loop_
 _atom_site_type_symbol
 _atom_site_label
 _atom_site_symmetry_multiplicity
 _atom_site_fract_x
 _atom_site_fract_y
 _atom_site_fract_z
 _atom_site_occupancy
  Li  Li0  1  0.99997900  0.50002100  0.00001000  1.0
  Li  Li1  1  0.49997500  0.49999200  0.49999800  1.0
  Li  Li2  1  0.50000400  0.00000400  0.49997200  1.0
  Li  Li3  1  0.00006500  0.49997200  0.50000900  1.0
  V  V4  1  0.50013400  0.99998900  0.00003400  1.0
  V  V5  1  0.99997900  0.00003500  0.99999000  1.0
  Ni  Ni6  1  0.49995200  0.49999800  0.00000300  1.0
  Ni  Ni7  1  0.99994600  0.00000300  0.50004700  1.0
  O  O8  1  0.99497900  0.22610800  0.77563400  1.0
  O  O9  1  0.97501700  0.76740700  0.76905100  1.0
  O  O10  1  0.50843700  0.23675500  0.76208300  1.0
  O  O11  1  0.51218400  0.22908300  0.23120300  1.0
  O  O12  1  0.48798200  0.77078400  0.76859900  1.0
  O  O13  1  0.49145600  0.76328300  0.23790600  1.0
  O  O14  1  0.02489000  0.23270500  0.23104200  1.0
  O  O15  1  0.00502200  0.77386100  0.22441800  1.0
# generated using pymatgen
data_Co4(CuO4)3
_symmetry_space_group_name_H-M   'P 1'
_cell_length_a   6.22725458
_cell_length_b   6.23350912
_cell_length_c   6.23386820
_cell_angle_alpha   70.27601500
_cell_angle_beta   71.73026451
_cell_angle_gamma   110.54124572
_symmetry_Int_Tables_number   1
_chemical_formula_structural   Co4(CuO4)3
_chemical_formula_sum   'Co4 Cu3 O12'
_cell_volume   185.94397307
_cell_formula_units_Z   1
loop_
 _symmetry_equiv_pos_site_id
 _symmetry_equiv_pos_as_xyz
  1  'x, y, z'
loop_
 _atom_site_type_symbol
 _atom_site_label
 _atom_site_symmetry_multiplicity
 _atom_site_fract_x
 _atom_site_fract_y
 _atom_site_fract_z
 _atom_site_occupancy
  Co  Co0  1  0.49996800  0.99995000  0.00007600  1.0
  Co  Co1  1  0.99996900  0.99989900  0.50002900  1.0
  Co  Co2  1  0.49999500  0.50007200  0.49996300  1.0
  Co  Co3  1  0.00003300  0.50004200  0.99987200  1.0
  Cu  Cu4  1  0.99987700  0.49977000  0.50009700  1.0
  Cu  Cu5  1  0.50016100  0.00013500  0.50002900  1.0
  Cu  Cu6  1  0.49992600  0.50004500  0.00009900  1.0
  O  O7  1  0.13706700  0.82076200  0.67364000  1.0
  O  O8  1  0.86312000  0.17935100  0.32628400  1.0
  O  O9  1  0.50123800  0.81746900  0.31953800  1.0
  O  O10  1  0.18348000  0.68591300  0.13428700  1.0
  O  O11  1  0.29489000  0.13614600  0.19242100  1.0
  O  O12  1  0.33172600  0.49684900  0.80443600  1.0
  O  O13  1  0.17191700  0.30850700  0.52487900  1.0
  O  O14  1  0.70495600  0.86373000  0.80755100  1.0
  O  O15  1  0.49889400  0.18269900  0.68050100  1.0
  O  O16  1  0.81646400  0.31401800  0.86572100  1.0
  O  O17  1  0.66822400  0.50315000  0.19556200  1.0
  O  O18  1  0.82809400  0.69149200  0.47501500  1.0
# generated using pymatgen
data_LiAlVO4
_symmetry_space_group_name_H-M   'P 1'
_cell_length_a   5.75424060
_cell_length_b   5.83035990
_cell_length_c   5.83093579
_cell_angle_alpha   89.96329659
_cell_angle_beta   60.44073977
_cell_angle_gamma   60.43961334
_symmetry_Int_Tables_number   1
_chemical_formula_structural   LiAlVO4
_chemical_formula_sum   'Li2 Al2 V2 O8'
_cell_volume   140.18984471
_cell_formula_units_Z   2
loop_
 _symmetry_equiv_pos_site_id
 _symmetry_equiv_pos_as_xyz
  1  'x, y, z'
loop_
 _atom_site_type_symbol
 _atom_site_label
 _atom_site_symmetry_multiplicity
 _atom_site_fract_x
 _atom_site_fract_y
 _atom_site_fract_z
 _atom_site_occupancy
  Li  Li0  1  0.25383300  0.61451100  0.87790700  1.0
  Li  Li1  1  0.74617500  0.38548100  0.12208900  1.0
  Al  Al2  1  0.00000700  0.99999900  0.49999200  1.0
  Al  Al3  1  0.50000000  0.00000400  0.49999500  1.0
  V  V4  1  0.50000400  0.99999100  0.99999700  1.0
  V  V5  1  0.99994200  0.50004800  0.50004200  1.0
  O  O6  1  0.02889500  0.23867900  0.70360600  1.0
  O  O7  1  0.53834800  0.20186900  0.72148400  1.0
  O  O8  1  0.46166900  0.79811800  0.27850700  1.0
  O  O9  1  0.97111100  0.76131600  0.29639000  1.0
  O  O10  1  0.51839500  0.76810300  0.74016000  1.0
  O  O11  1  0.97328900  0.76809200  0.74019400  1.0
  O  O12  1  0.02672500  0.23189800  0.25980000  1.0
  O  O13  1  0.48160500  0.23189200  0.25983700  1.0
# generated using pymatgen
data_Li3Ti2V2O8
_symmetry_space_group_name_H-M   'P 1'
_cell_length_a   5.97081200
_cell_length_b   5.98999007
_cell_length_c   5.99393485
_cell_angle_alpha   60.43773366
_cell_angle_beta   60.12753011
_cell_angle_gamma   60.10585455
_symmetry_Int_Tables_number   1
_chemical_formula_structural   Li3Ti2V2O8
_chemical_formula_sum   'Li3 Ti2 V2 O8'
_cell_volume   152.34966109
_cell_formula_units_Z   1
loop_
 _symmetry_equiv_pos_site_id
 _symmetry_equiv_pos_as_xyz
  1  'x, y, z'
loop_
 _atom_site_type_symbol
 _atom_site_label
 _atom_site_symmetry_multiplicity
 _atom_site_fract_x
 _atom_site_fract_y
 _atom_site_fract_z
 _atom_site_occupancy
  Li  Li0  1  0.50000000  0.00000000  0.50000000  1.0
  Li  Li1  1  0.00000000  0.00000000  0.50000000  1.0
  Li  Li2  1  0.00000000  0.00000000  0.00000000  1.0
  Ti  Ti3  1  0.00000000  0.50000000  0.00000000  1.0
  Ti  Ti4  1  0.50000000  0.50000000  1.00000000  1.0
  V  V5  1  0.50000000  0.50000000  0.50000000  1.0
  V  V6  1  0.50000000  0.00000000  1.00000000  1.0
  O  O7  1  0.75273100  0.74660100  0.22091900  1.0
  O  O8  1  0.25409900  0.27093000  0.22087200  1.0
  O  O9  1  0.27974900  0.74660100  0.22091900  1.0
  O  O10  1  0.25024100  0.72904100  0.77047700  1.0
  O  O11  1  0.74975900  0.27095900  0.22952300  1.0
  O  O12  1  0.72025100  0.25339900  0.77908100  1.0
  O  O13  1  0.74590100  0.72907000  0.77912800  1.0
  O  O14  1  0.24726900  0.25339900  0.77908100  1.0
