# generated using pymatgen
data_Li2VNiO4
_symmetry_space_group_name_H-M   'P 1'
_cell_length_a   5.87792791
_cell_length_b   5.90415605
_cell_length_c   5.90682499
_cell_angle_alpha   89.95012308
_cell_angle_beta   60.27677276
_cell_angle_gamma   60.27899738
_symmetry_Int_Tables_number   1
_chemical_formula_structural   Li2VNiO4
_chemical_formula_sum   'Li4 V2 Ni2 O8'
_cell_volume   146.22157302
_cell_formula_units_Z   2
loop_
 _symmetry_equiv_pos_site_id
 _symmetry_equiv_pos_as_xyz
  1  'x, y, z'
loop_
 _atom_site_type_symbol
 _atom_site_label
 _atom_site_symmetry_multiplicity
 _atom_site_fract_x
 _atom_site_fract_y
 _atom_site_fract_z
 _atom_site_occupancy
  Li  Li0  1  0.99997900  0.50002100  0.00001000  1.0
  Li  Li1  1  0.49997500  0.49999200  0.49999800  1.0
  Li  Li2  1  0.50000400  0.00000400  0.49997200  1.0
  Li  Li3  1  0.00006500  0.49997200  0.50000900  1.0
  V  V4  1  0.50013400  0.99998900  0.00003400  1.0
  V  V5  1  0.99997900  0.00003500  0.99999000  1.0
  Ni  Ni6  1  0.49995200  0.49999800  0.00000300  1.0
  Ni  Ni7  1  0.99994600  0.00000300  0.50004700  1.0
  O  O8  1  0.99497900  0.22610800  0.77563400  1.0
  O  O9  1  0.97501700  0.76740700  0.76905100  1.0
  O  O10  1  0.50843700  0.23675500  0.76208300  1.0
  O  O11  1  0.51218400  0.22908300  0.23120300  1.0
  O  O12  1  0.48798200  0.77078400  0.76859900  1.0
  O  O13  1  0.49145600  0.76328300  0.23790600  1.0
  O  O14  1  0.02489000  0.23270500  0.23104200  1.0
  O  O15  1  0.00502200  0.77386100  0.22441800  1.0
